68

H       -1.162044836      1.812288986      6.342478705
O       -1.734443446      1.495965470      7.083414947
C       -0.980096337      1.421696063      8.236642606
C        0.453453922      1.597747556      8.226304064
O        1.098703325      1.890989801      7.008945175
H        0.990269612      1.093080574      6.431922571
C        1.210153729      1.540039913      9.408007023
C        0.541932026      1.320428793     10.649567686
C       -0.886068539      1.131679872     10.637766829
C       -1.653404699      1.162262545      9.443348904
H       -2.746599005      1.031483837      9.438451150
H        2.301351173      1.683043021      9.348222604
C        0.970607577      1.201720479     12.027973010
C       -0.179273836      0.957067478     12.788715219
N       -1.286644524      0.902240456     11.943225065
H       -2.252538154      0.777161790     12.251583534
H        1.992466054      1.293066467     12.417800274
H       -0.300139014      0.815432997     13.869839177
N       -2.932940530      3.873605278     11.525662498
H       -3.922846619      3.860093762     11.777197237
C       -1.879081298      3.982707850     12.459882405
C       -0.677391265      4.208605562     11.817678304
C       -0.970159711      4.272189747     10.389519360
C       -2.446759709      4.090968074     10.247773598
C       -3.124796617      4.158452036      9.041073814
C       -2.336310365      4.348374167      7.822166067
C       -0.775657682      4.484142435      7.954946552
C       -0.156923271      4.462755169      9.286148613
O       -0.102793919      4.642226088      6.911477988
O       -2.827162861      4.437954293      6.677861000
H       -4.217033217      4.046594601      8.961897177
H        0.932049187      4.602040258      9.367261189
H        0.306986148      4.291148950     12.291012050
H       -2.082242292      3.867953455     13.532056938
H       -0.515323709      3.634738028      5.290783096
O       -0.783429760      2.805497239      4.825981184
C        0.190982314      2.495164768      3.870722531
C        1.547281710      2.960595048      4.012124474
O        1.890410726      3.765303768      5.095937306
H        1.549975464      3.296448541      5.897163155
C        2.506479050      2.683662082      3.021090351
C        2.142971011      1.872647893      1.906739374
C        0.797220678      1.363024670      1.824636608
C       -0.194879947      1.680443597      2.793921477
H       -1.238132096      1.338913997      2.709878508
H        3.529563668      3.071445949      3.149076389
C        2.845998409      1.387863447      0.735286230
C        1.934137297      0.618867065      0.005598385
N        0.706865166      0.602055458      0.672736733
H       -0.134109876      0.124869412      0.340541177
H        2.059170818      0.072729320     -0.936684914
H        3.894157247      1.569611644      0.465984390
N       -0.108705046     -2.729154132      1.339610512
H       -1.068618012     -3.070356722      1.255445204
C        0.938836675     -3.052722109      0.447065071
C        2.125291249     -2.488682258      0.871729749
C        1.826417203     -1.761292017      2.107288812
C        0.375309107     -1.966783444      2.382411909
C       -0.289943636     -1.473291732      3.498726218
C        0.484058294     -0.698919088      4.456821743
C        1.988069429     -0.391767796      4.140542217
C        2.610683193     -0.983068802      2.941932033
O        2.619334324      0.330900329      4.941726664
O        0.020465571     -0.267582356      5.540406880
H       -1.353746451     -1.674581410      3.696925966
H        3.681585651     -0.805638345      2.759179641
H        0.725037938     -3.668618711     -0.436553058
H        3.097675329     -2.558241150      0.370866374
