68

H       -0.805078378      0.729951892      7.066298199
O       -1.245888984      0.345709545      7.859256963
C       -0.647212255      0.796643618      9.033180047
C        0.784637116      1.008824996      9.146408773
O        1.639100190      0.914759123      8.062200889
H        1.162857880      0.530071600      7.297175966
C       -1.479247922      0.930719311     10.158940870
C       -0.888512537      1.321481663     11.390190699
C        0.532517367      1.506583450     11.531386169
C        1.361557720      1.346089692     10.382483069
H       -2.560582794      0.756972707     10.046736068
H        2.453558180      1.489790074     10.429349382
N       -1.462534604      1.535870297     12.633743497
H       -2.461656342      1.495832484     12.841827952
C       -0.467259562      1.857534163     13.554898813
C        0.778767985      1.839944080     12.916152795
H        1.744947214      2.063414337     13.386247327
H       -0.725163496      2.077571563     14.598236083
O       -0.226631203      3.113856664      6.750798087
C       -0.792487191      3.419852530      7.825793114
C       -2.360069021      3.323794697      7.874860072
O       -2.944990952      2.989122156      6.820240157
C       -3.046006144      3.651949082      9.119937540
H       -4.143902712      3.585581987      9.166037477
C       -0.059558680      3.878890035      9.012998834
H        1.034774686      3.979418156      8.954924192
C       -0.780679525      4.173386954     10.160053149
C       -2.268138959      4.043668315     10.199629782
N       -2.653421795      4.400862383     11.475316169
H       -3.619683161      4.468946084     11.798674417
C       -1.520741369      4.770172383     12.235417914
C       -0.370760853      4.645659468     11.479721288
H        0.652610721      4.841639898     11.817951635
H       -1.645107958      5.092880894     13.276664980
H       -1.421809664      3.329343162      5.118737244
O       -1.717471441      3.752813340      4.278042552
C       -0.682064686      3.682978497      3.369488695
C       -1.044576976      3.975855612      1.999074968
O       -2.386065620      4.266325831      1.787580928
H       -2.486625363      4.404250991      0.823235921
C       -0.092705262      3.941845325      0.970578868
H       -0.384984975      4.154588993     -0.071152898
C        1.240934775      3.575018788      1.318862229
C        1.632134661      3.301011057      2.670511064
C        0.645325256      3.342750823      3.703036738
H        0.910346650      3.158551923      4.755549228
N        2.366469035      3.450597408      0.520692454
H        2.392588698      3.577751565     -0.492668306
C        3.461324404      3.104030441      1.312413004
C        3.048289012      3.003332949      2.647121048
H        4.452080477      2.960931009      0.863999743
H        3.686362495      2.738624532      3.500060719
O       -1.973332248      0.901950974      4.660420893
C       -1.038092777      0.770746487      3.844193146
C        0.372184134      0.354676325      4.388371200
O        0.493097928      0.262141602      5.635210768
C        1.434695962      0.068108045      3.449105265
H        2.425203403     -0.233048471      3.822786759
C        1.173555292      0.272913232      2.099669502
C       -0.148141789      0.693283821      1.549240725
C       -1.216667938      0.961242639      2.387174553
H       -2.201743003      1.284703656      2.015233196
C        0.003741559      0.761425342      0.094209039
N        2.004759395      0.123245421      1.017374261
H        2.994734036     -0.123430987      1.070305281
C        1.313054735      0.417820714     -0.181544880
H        1.838755730      0.347172557     -1.141887507
H       -0.767598554      1.033310115     -0.635611170
