51

C        1.1549420351    2.4080028101   -0.1502542454 
N        1.3032942732    1.2529094989   -0.4845431477 
N        0.8883122070    3.6978344839    0.1265879855 
C        1.7416083077    4.2795450017    0.9866199524 
N        2.4479217942    4.9363091572    1.7223604805 
H        1.7639543376    5.3951657876   -4.5821458981 
C        1.3006190689    6.0215839982   -3.7947585271 
H        0.4060527623    5.5095178791   -3.3926935865 
H        3.9895671909    6.6043771659   -3.9229621910 
C        3.3196932383    7.1658704092   -3.2422936241 
H        3.9072778549    7.5911066663   -2.4082723511 
N        2.3395235328    6.1407240265   -2.6824530741 
C        1.6738657735    6.6655132205   -1.4295682511 
H        1.1820702482    7.6238153056   -1.6700655877 
H        2.4425030697    6.8200609902   -0.6533326785 
H        0.9390561473    5.9087764587   -1.0996263640 
H        3.3111510150    4.4254763835   -3.4218975323 
C        2.9854801667    4.7854045339   -2.4260085955 
H        2.1720238631    4.1338983277   -2.0497433613 
H        2.9530463327    8.4685178021   -4.9505884027 
C        2.4443515696    8.1885797139   -4.0090172060 
H        2.2960342882    9.1101108854   -3.4135871324 
H        0.8154461703    7.4636423267   -5.3542068572 
C        1.0849299360    7.4659573470   -4.2807220042 
H        0.2555620833    7.9509460282   -3.7298525650 
C        4.1625300099    4.8101025752   -1.4429184220 
C        4.6737172165    3.3712992775   -1.1945663422 
H        3.8467646691    5.2351707428   -0.4689307926 
H        4.9924212932    5.4322995904   -1.8437886645 
C        5.7076585322    3.3396340184   -0.0528889753 
H        5.1270832078    2.9612538564   -2.1246629773 
H        3.8127843311    2.7166305383   -0.9364282478 
H        6.5800446636    3.9844621399   -0.2924138712 
H        6.0787395100    2.3082531962    0.1201399553 
H        5.2524726297    3.7096324110    0.8892910677 
H        1.8574658730    6.7180348176   -8.0737394580 
H        1.0366042018    4.1946528611   -7.4142910508 
C        2.3685558265    5.9658349710   -7.4587143859 
C        1.9745645133    4.6848023536   -7.1293947444 
N        3.6065169930    6.2915541963   -6.8471929961 
C        3.0452079758    4.1097771655   -6.3098148689 
H        4.2149736833    7.0228105234   -7.2287326269 
H        2.4096517656    2.0966206778   -5.7498135689 
C        3.1836208197    2.8785184123   -5.6942586151 
C        4.1058217969    5.1593896732   -6.2111993362 
C        4.4276392749    2.5967604970   -4.9434261033 
C        5.3185863603    4.9810426520   -5.5662310825 
O        4.6292927225    1.5166753122   -4.3566952329 
C        5.5463966992    3.7048012309   -4.8772188577 
H        6.0966213836    5.7590747747   -5.5241446851 
O        6.5789067810    3.4550853271   -4.2228403529 
