40

C        1.4020865550   -1.7787984752   -8.1529379722 
N        1.9522975642   -1.1261438942   -9.2466712479 
C        1.5283841182   -1.7377509527  -10.3836916866 
N        0.7099619388   -2.7610625389  -10.0363581750 
C        0.6215505266   -2.8209356614   -8.6563329877 
C        2.8152024149    0.0813682236   -9.1913929756 
C        0.1010411279   -3.7163650111  -10.9833191961 
H        1.7830328339   -1.4370862145  -11.4040382775 
H        0.0309065459   -3.5823557675   -8.1381671387 
H        1.6040235364   -1.4722958616   -7.1218939325 
H       -0.2290938340   -3.1581564477  -11.8776146198 
H        0.8582244344   -4.4812662155  -11.2316940610 
H       -0.7730046784   -4.1725142311  -10.4854158279 
C        4.1652951500   -0.2299388045   -8.5343450122 
H        2.2455103400    0.8550870882   -8.6404797334 
H        2.9380990489    0.4228829050  -10.2372479535 
H        4.0296141114   -0.5764958894   -7.4903309894 
H        4.7741480056    0.6964924958   -8.5151048697 
H        4.6983611102   -1.0077804896   -9.1141609109 
H       -3.9585584338   -2.2326917026   -4.8404386996 
H       -2.1590936136   -0.1712684780   -4.8355572973 
C       -3.3869924004   -1.8121321277   -5.6773876545 
C       -2.4771157382   -0.7735368640   -5.6939198744 
N       -3.5431320765   -2.3577989235   -6.9679140789 
H       -4.1848949752   -3.1161817474   -7.2039615474 
C       -2.0248606146   -0.6358688934   -7.0775691361 
C       -2.7476120955   -1.6790987942   -7.8661570183 
H       -0.5938193981    1.0135384237   -7.1172793874 
C       -1.1238960208    0.2269102489   -7.6782158910 
C       -2.5937248857   -1.8698838207   -9.2326001850 
C       -0.9102482422    0.1260102590   -9.1363628287 
H       -3.1535548009   -2.6326314923   -9.7956555165 
C       -1.6933414278   -0.9694027054   -9.9518520613 
O       -0.1313527422    0.8794219410   -9.7549415199 
O       -1.5024355604   -1.0203294990  -11.1856438657 
N        4.9770520597   -2.8893447621  -10.7993039283 
C        4.1542132952   -3.6860951023  -10.3996620074 
N        3.1544096627   -4.5249818511  -10.0950563093 
C        3.2365539302   -5.1489344922   -8.9086624752 
N        3.1831832275   -5.7832938745   -7.8784111469 
