42

C         -1.72098       -1.05601       -1.63473
C         -1.96877        0.35481       -2.20948
N         -0.39857       -0.92134       -1.03698
C          0.11224        0.25786       -1.29119
N         -0.69006        1.02526       -1.97966
C         -0.42165        2.42864       -2.29632
C         -1.20188        3.39927       -1.41731
C          0.28560       -1.96742       -0.29985
H          0.49274       -2.81993       -0.94918
H         -0.33693       -2.29913        0.53198
H          1.21600       -1.55663        0.08509
H          1.10928        0.53547       -0.92197
H         -0.65079        2.57854       -3.35442
H          0.63979        2.58184       -2.13525
H         -0.99868        3.14368       -0.37682
H         -2.27901        3.29574       -1.59429
C         -2.97040        0.89884        2.32253
C         -2.19001        0.59129        1.05136
O         -2.16577        1.44423        0.15706
O         -1.60741       -0.51270        1.01002
H         -2.25980        1.08244        3.13299
H         -3.57067        0.03450        2.61099
H         -3.60174        1.77709        2.19596
H         -2.33564       -1.88443       -1.66581
H         -2.82421        0.73123       -2.64713
H         -0.97540        4.39495       -1.81171
H          2.64246        1.04109       -2.84129
O          3.39289       -1.40213       -1.99703
C          1.99495        0.19182       -3.10786
H          0.62225        2.42491       -4.27349
C          2.37406       -1.15762       -2.67091
N          0.24830        1.47939       -4.36187
C          0.82679        0.33750       -3.83585
C          1.44855       -2.36549       -3.07712
C         -0.95012        1.14897       -5.02851
O          1.78255       -3.51512       -2.74410
C         -0.07760       -0.79429       -4.20677
H         -1.54013        1.94133       -5.50624
C          0.20872       -2.09396       -3.84480
C         -1.19068       -0.20658       -4.96138
H         -0.44032       -2.94275       -4.11220
H         -2.04415       -0.74061       -5.39443
