54

O        3.4581686949   -4.0281034161  -10.1138994434 
S        3.8312290166   -3.7111751273  -11.5087457809 
C        5.3638018886   -2.6910077629  -11.2928013187 
F        5.1296263744   -1.5631788239  -10.5642006920 
F        6.3376870254   -3.3947765505  -10.6503576277 
F        5.8680650239   -2.2995002754  -12.4966811608 
O        2.9256114346   -2.7773048032  -12.2120565305 
O        4.3165509592   -4.8463019512  -12.3097396815 
H       -4.5793627126   -1.7265389219   -7.2968587883 
H       -2.2702282872   -0.4739427183   -6.5443341338 
C       -3.9029327702   -1.1059313416   -7.8992416816 
C       -2.7378825027   -0.4595836389   -7.5359431794 
N       -4.1731222428   -0.9207741975   -9.2760293571 
H       -5.0923479545   -1.0919103623   -9.6925235437 
C       -2.2568545469    0.2467418806   -8.7260215807 
C       -3.2488673864   -0.0344522769   -9.8105237281 
H       -0.4237104410    1.2857076210   -8.1565032708 
C       -1.1551998087    1.0541738848   -8.9474469297 
C       -3.1888299373    0.5130689671  -11.0824246591 
C       -0.9919041515    1.6890145695  -10.2755464236 
H       -3.9528698890    0.3201198917  -11.8514883836 
C       -2.0749253485    1.4212329884  -11.3887454388 
O       -0.0295109601    2.4323800277  -10.5467574369 
O       -1.9345796738    1.9847729004  -12.4915968816 
H        0.8584384973   -1.7755166023  -11.7392800099 
H       -1.1630764268   -2.9606746307  -13.0266378418 
H        0.6913126515   -4.1271891688  -12.1760904728 
C        0.2149964905   -1.7737746162  -10.8384261785 
C       -1.6794578752   -2.8828413740  -12.0517672435 
H        1.4987818229    0.4376551575   -9.7957440680 
H       -2.1132129898   -1.8694523156  -11.9341002911 
H       -0.4969407237   -0.9246630281  -10.8797672581 
C        1.0711772969   -1.7026447366   -9.5682277872 
C        0.2082530662   -4.2480885753  -11.1908618514 
H        0.4232197239   -1.5848431760   -8.6722101435 
C        2.0555430798   -0.5166476654   -9.6629670080 
N       -0.6476583588   -3.0266184981  -10.9375198403 
C       -2.7197576574   -3.9739429638  -11.7462067191 
H       -2.4381263747   -4.9344028422  -12.2195861061 
H       -3.7084543903   -3.6812587871  -12.1473202060 
H       -0.4377808133   -5.1435378809  -11.1693028566 
H        1.6739846727   -2.6250044616   -9.4540704279 
H        0.9833632437   -4.3103880510  -10.4094217229 
H        2.6878364685   -0.6653652054  -10.5628242223 
C        2.9531573360   -0.4349613326   -8.4147227375 
H        2.3463996851   -0.2997978256   -7.4942017566 
H        3.6622073644    0.4154609386   -8.4892184817 
C       -1.5172703653   -3.2371974210   -9.7031979482 
H       -1.8382867269   -2.2287847266   -9.3795271263 
C       -2.7166150418   -4.0911124942  -10.1872399209 
H        3.5444455430   -1.3676172653   -8.3113856383 
H       -0.9038183255   -3.7003473228   -8.9084724755 
H       -2.6171375500   -5.1450788821   -9.8636399115 
H       -3.6469451288   -3.6853548053   -9.7466740934 
