32

O        3.7139643471   -1.6449532320    1.2281368696 
C        2.6017214364   -1.1965263474    0.8858019001 
C        2.3961481034   -0.4436873802   -0.3578348825 
C        1.1095793491   -0.0142991471   -0.6539753888 
N        0.6577129439    0.7079389160   -1.7367921966 
H        1.2537632955    1.1315007260   -2.4512166508 
C       -0.7314262774    0.9315092374   -1.6197831122 
C       -1.2227996559    0.3229925660   -0.4796536194 
C       -0.0822410708   -0.2991304484    0.1963691976 
C        0.0329942845   -0.9950897061    1.3887454352 
C        1.3695578842   -1.4474727860    1.8305392737 
O        1.5646484218   -2.0028199808    2.9278701986 
H       -1.2520186835    1.5141246666   -2.3894192289 
H       -2.2659307993    0.3234329317   -0.1420733211 
H       -0.8314135345   -1.1907164512    2.0429035884 
H        3.2669831289   -0.1942579964   -0.9819390735 
H        2.1372564769   -0.7678440432   -5.3398072537 
C        2.6102242435   -2.2311260884   -2.9093925743 
O        3.3522618626   -3.6199764715   -1.1034275614 
N        1.3663626695   -0.9921644220   -4.7077512570 
C        2.4252127743   -3.0096149581   -1.6762082756 
C        1.4799141218   -1.7215579387   -3.5335103787 
C        0.0103160891   -0.7518399089   -4.9843763683 
C        0.9839765223   -3.0981531132   -1.0583748046 
C        0.0938317132   -1.9084768938   -3.0209044747 
C       -0.7948206293   -1.2729730226   -3.9872634275 
O        0.8432455373   -3.6286395621    0.0648723308 
C       -0.1526819713   -2.5640247972   -1.8253868181 
H       -0.2790130779   -0.2061795056   -5.8909513943 
H       -1.8884178344   -1.2186398432   -3.9396295139 
H       -1.1698693771   -2.6996057426   -1.4258755539 
H        3.6227577062   -2.1404692572   -3.3320016642 
