46

C       -1.180250271      2.226492313     -2.570266123
C       -0.107064753      3.015836682     -2.155927070
N       -1.150280205      1.073401683     -1.796877798
C       -0.107817172      1.138042157     -0.929289061
N        0.529998761      2.320656635     -1.136045785
C        1.698372713      2.787017571     -0.351169971
C        1.251907147      3.531154478      0.914327521
C       -2.094622977     -0.063649408     -1.857737410
H       -2.386298103     -0.221745913     -2.911920296
H       -2.989183248      0.177227926     -1.252700350
H       -1.569484772     -0.954305200     -1.461557261
H        0.221767780      0.317362104     -0.256126716
H        2.296317548      3.434795283     -1.019585342
H        2.305127608      1.888539745     -0.118516272
H        0.658503562      2.864104801      1.571700523
H       -1.948844268      2.406561882     -3.328780725
H        0.231271364      4.001007596     -2.492424968
H        0.639993167      4.419407365      0.658032173
H        2.148896464      3.869387515      1.471976340
C        2.141806399     -3.305560374     -0.175285720
C        0.990199890     -2.278399142     -0.232873385
O        1.227813100     -1.152423153      0.367701257
O       -0.061790439     -2.573963673     -0.865809024
H        3.024105562     -2.878570648     -0.695417073
H        1.857280941     -4.261029262     -0.656351634
H        2.438038535     -3.486826103      0.877948575
H       -0.751028829      0.290005199     -4.611315728
H        0.878876237      2.590886400     -5.840664702
C        0.207826472     -0.124722140     -4.997700042
C        1.775252123     -0.243035918     -2.833962377
C        1.359746827      0.275031898     -4.081364618
C        2.823399941      0.401794853     -2.126408799
C        2.001105976      1.405314184     -4.640172725
C        3.456173179      1.551497904     -2.696602268
C        3.065590446      2.043892384     -3.964812101
O        3.270126899      0.008625767     -0.881513419
N        1.487803039      1.761453244     -5.949309434
H       -0.226680981      0.911851135     -6.943337576
O        4.451396640      2.144945762     -1.932598347
H        1.281653731     -1.121777720     -2.395594144
C        0.627145376      0.583706782     -6.318423330
H        2.535745804     -0.526360221     -0.448491944
H        4.803930457      2.885758064     -2.467458821
H        3.575296063      2.919187954     -4.402306540
H        0.084287208     -1.219154487     -5.125287537
H        1.253639058     -0.111853904     -6.918129962
