42

C       -2.242078904      2.416179811     -2.170506601
C       -1.278852453      3.296477682     -1.682483552
N       -1.777143843      1.134614459     -1.901002762
C       -0.572143798      1.204918207     -1.277254671
N       -0.263263301      2.518607172     -1.135721957
C        0.979266855      3.003602242     -0.490706002
C        0.662390302      3.781827646      0.793541390
C       -2.422297239     -0.140321613     -2.262211982
H       -2.507263057     -0.208738810     -3.362739148
H       -3.426610167     -0.188380148     -1.802195089
H       -1.780369889     -0.953832862     -1.876000529
H        0.012106661      0.311902026     -0.930578211
H        1.504746259      3.634029373     -1.234347777
H        1.571369020      2.093296252     -0.269504662
H        0.134258650      3.129104112      1.517941549
H       -3.190762942      2.600643024     -2.683799216
H       -1.237790193      4.390481960     -1.699265056
H        0.035832819      4.674275794      0.590331766
H        1.611850205      4.124335636      1.253425120
C        2.430246409     -2.292967212      0.684750053
C        1.618488896     -1.063713930      0.215165432
O        2.032817072      0.086271941      0.564999900
O        0.605404518     -1.317899877     -0.534634500
H        3.120805752     -2.573344940     -0.135462419
H        1.763729364     -3.156250442      0.884197519
H        3.029694989     -2.058467809      1.586977812
H        3.673383651      1.779268855     -2.298166333
O        4.234016941     -0.790735676     -1.794735154
C        2.956492431      1.028433873     -2.664258251
H        1.974951923      3.427218344     -3.857617773
C        3.214910501     -0.393447584     -2.391483861
N        1.355305691      2.617351244     -3.765201627
C        1.828961780      1.357256139     -3.391570396
C        2.202405301     -1.463219085     -2.938997297
C        0.225667641      2.447767691     -4.602750076
O        2.467676223     -2.668910034     -2.798772888
C        0.858032469      0.355707369     -3.923814306
H       -0.248219228      3.325897089     -5.060751931
C        1.015943176     -0.995357091     -3.695894527
C       -0.138037237      1.119879833     -4.685067369
H        0.321748266     -1.749015146     -4.100598774
H       -0.988931512      0.717364485     -5.248315847
