46

C        0.627558139     -0.007112888     -0.380675040
C       -0.575483301     -0.214948730     -1.052864123
N        0.762501696      1.366029276     -0.224941557
C       -0.303204444      1.998613528     -0.783705522
N       -1.127451824      1.039964381     -1.280752777
C       -2.418953327      1.337474414     -1.944692837
C       -3.589443392      0.743882927     -1.148249335
C        1.898230515      2.058530151      0.411184596
H        2.827228770      1.696853636     -0.065992151
H        1.904990233      1.836638225      1.494750057
H        1.765776736      3.142436920      0.244521239
H       -0.466282152      3.106254903     -0.819050647
H       -2.368543838      0.919637935     -2.969511666
H       -2.484791919      2.442658047     -1.990450541
H       -3.613221810      1.166760127     -0.123343864
H       -3.519845302     -0.360795600     -1.077944272
H        1.388205094     -0.712045787     -0.031509947
H       -1.044750103     -1.140251735     -1.401408190
H       -4.540583337      0.998131132     -1.658201852
C       -1.705254366      6.914105933     -1.443195639
C       -1.590769701      5.370809447     -1.349522355
O       -2.545400092      4.679119696     -1.818851598
O       -0.500499497      4.930591420     -0.821863935
H       -1.080538642      7.270485630     -2.290188004
H       -1.315625087      7.391289752     -0.521373169
H       -2.751207121      7.231887692     -1.622091924
H       -1.823366753      3.371756147     -3.994265512
H        0.475922646      4.960778936     -2.623579924
C       -0.939755103      3.411063056     -4.661945580
C        0.264057930      1.083620684     -4.152470993
C        0.160275739      2.492671701     -4.142623867
C        1.363790965      0.474813098     -3.500402411
C        1.134302742      3.284013519     -3.480538095
C        2.330121238      1.279507493     -2.833266142
C        2.246148039      2.691571820     -2.841225520
O        1.481340294     -0.904066832     -3.494704179
N        0.860351806      4.696765328     -3.549047324
H       -0.941240505      5.612918811     -4.278303256
O        3.329911364      0.563176374     -2.158009368
H       -0.468002608      0.443941594     -4.673339779
C       -0.243748917      4.802439275     -4.564078770
H        2.350359495     -1.075536320     -3.070660156
H        4.160594688      1.077029424     -2.240579000
H        3.015376932      3.305220033     -2.344042706
H       -1.261425007      3.174806187     -5.697107028
H        0.213023090      5.059179237     -5.545185336
