44

C        0.674922362      0.076224594     -0.710967354
C       -0.569791593     -0.112863548     -1.308310837
N        0.817739245      1.443427174     -0.516582344
C       -0.290518456      2.089882713     -0.970974926
N       -1.141099649      1.144977903     -1.453666278
C       -2.484505978      1.425479612     -2.018356086
C       -3.584126194      0.956349347     -1.054759293
C        1.953992482      2.104576189      0.154548638
H        2.888169373      1.626463613     -0.193280200
H        1.843794768      1.992535640      1.249930790
H        1.938618832      3.173247425     -0.125296377
H       -0.442663849      3.197243478     -0.953067028
H       -2.543952302      0.905074433     -2.994514644
H       -2.538094242      2.521181345     -2.149967534
H       -3.505770094      1.501611303     -0.092760650
H        1.459729803     -0.636638186     -0.438357735
H       -1.066182647     -1.027885851     -1.648775767
H       -3.522161715     -0.133781892     -0.859390085
H       -4.574507752      1.173547091     -1.504187087
C       -2.021805447      6.858421307     -0.990662244
C       -1.647655331      5.358858146     -1.144107849
O       -2.562021969      4.592269716     -1.594642945
O       -0.444147854      5.039181566     -0.848823168
H       -1.888678711      7.360144713     -1.973601764
H       -1.367133733      7.365091173     -0.254419437
H       -3.084566605      6.972309516     -0.696984638
H       -1.168551620      3.519336955     -3.561236061
C       -0.307098420      3.577624072     -4.251292226
H       -0.089671600      5.605333150     -3.361380984
N        1.663612156      4.426384875     -3.235437304
C        1.886772692      3.094896101     -3.294684653
C        2.989958176      2.361846605     -2.856719343
C        0.696026376      2.477932582     -3.942074619
C        2.910622328      0.917284444     -2.873809154
C        0.614746256      1.121376149     -4.124407953
C        1.758733073      0.263908028     -3.705420911
O        3.713422248      0.153023353     -2.284691648
H        3.846374561      2.847832268     -2.363266654
C        0.478663372      4.890400952     -3.981070158
O        1.810116077     -0.946876259     -3.985316610
H        2.357228214      5.084057502     -2.867124181
H       -0.235485734      0.641794517     -4.637627683
H       -0.683071253      3.518353625     -5.291914321
H        0.799800355      5.381542558     -4.924318696
