44

C        0.800822606      0.477739924     -0.672324913
C       -0.342817093      0.313806421     -1.453374796
N        0.854920369      1.822124987     -0.329164701
C       -0.205891012      2.478679792     -0.872136423
N       -0.939532447      1.564562016     -1.559263720
C       -2.206152416      1.857745885     -2.273380622
C       -3.411899491      1.436688707     -1.423211719
C        1.863296030      2.465988688      0.535031720
H        2.871027818      2.211932741      0.160902977
H        1.736897247      2.105293210      1.573305262
H        1.692476949      3.556648741      0.491128184
H       -0.403949780      3.572770299     -0.765676478
H       -2.159302371      1.319288393     -3.240562029
H       -2.224631812      2.950169830     -2.434742607
H       -3.443490032      2.049545760     -0.501459490
H        1.562552293     -0.238647693     -0.351272625
H       -0.755022890     -0.573017926     -1.945516401
H       -3.363379955      0.360520647     -1.158252799
H       -4.343703287      1.611845097     -1.998984234
C       -2.303186453      6.810998740      0.214692003
C       -1.739068368      5.485170484     -0.363179299
O       -2.573564343      4.645695048     -0.831108786
O       -0.462901120      5.365510578     -0.338871588
H       -2.080066026      7.642861549     -0.487473253
H       -1.811190931      7.055654226      1.178274041
H       -3.400058742      6.755629342      0.357532500
O        0.058301981     -1.636583995     -4.807935023
H        2.376663296     -1.695060260     -3.536887332
C        1.971142037     -0.681900594     -3.689455915
H       -0.690955413     -1.279213005     -5.330525399
C        0.753551869     -0.521788682     -4.362342096
C        2.636408260      0.481253027     -3.189429809
C        3.869831330      0.695429670     -2.463691841
C        0.201179046      0.788953448     -4.589297946
H        4.581476682     -0.066481039     -2.120689218
O       -1.033983249      0.772785428     -5.246657213
C        2.052790930      1.777913251     -3.411444750
C        0.824000455      1.951873232     -4.112116343
C        3.992921812      2.077588752     -2.271421157
H       -1.170089354      1.657744848     -5.644106845
N        2.888003366      2.720603017     -2.828173869
H        4.785561366      2.655482421     -1.780739191
H        0.383098319      2.947048412     -4.288195290
H        2.778262520      3.734566586     -2.894080966
