38

H        1.883902   2.460626   1.496227
N        2.117693   3.470454   1.471131
C        1.046727   4.202284   2.233208
H        0.700831   3.586603   3.087343
H        1.495805   5.136780   2.634878
C       -0.084547   4.569377   1.226695
H       -0.867584   3.779432   1.187480
H       -0.573627   5.532068   1.479598
C        0.688752   4.593199  -0.086562
C        1.914429   3.905490   0.104947
C        2.803576   3.680139  -0.965404
H        3.750297   3.134539  -0.822259
C        2.409919   4.121621  -2.248455
O        3.131534   3.837613  -3.421504
H        4.060985   3.657717  -3.167496
C        1.179823   4.800116  -2.458368
O        0.788700   5.178245  -3.734689
H        1.577067   5.042318  -4.302868
C        0.319026   5.057731  -1.365749
H       -0.640839   5.564375  -1.552872
N        2.428360  -0.203694   0.330435
H        3.369486  -0.576961   0.192398
C        1.721383  -0.251224   1.529104
H        2.162621  -0.724537   2.415058
C        0.478556   0.376915   1.355492
H       -0.297476   0.487994   2.123897
C        0.423265   0.826743  -0.020737
C        1.670076   0.450409  -0.632131
C        1.975192   0.742103  -1.992239
H        2.926471   0.446003  -2.462925
C       -0.542278   1.549811  -0.790703
H       -1.503433   1.874542  -0.361032
C       -0.231851   1.874865  -2.118297
O       -1.120059   2.611376  -2.882952
H       -0.598593   2.847310  -3.683005
C        1.019081   1.474739  -2.709688
O        1.202011   1.874725  -4.043388
H        2.041731   2.391680  -4.045650
