34

N       -0.018248245     -1.262335512     -3.735518786
H        0.660498642     -0.786499828     -4.333040323
C       -1.400304783     -1.130294357     -3.841852444
H       -1.835889338     -0.459859979     -4.592781634
C       -2.017457401     -1.944680072     -2.883281643
H       -3.098550861     -2.035399708     -2.718293397
C       -0.962053180     -2.599786819     -2.146407997
C        0.285541500     -2.149914594     -2.714620881
C        1.546980893     -2.638672143     -2.275489427
H        2.497248667     -2.345026361     -2.747593310
C       -0.942744646     -3.517447262     -1.049378626
H       -1.868920290     -3.861811892     -0.561660635
C        0.299890171     -3.934765004     -0.554265896
O        0.381558962     -4.759456331      0.550977424
H        1.350457422     -4.842515451      0.701570202
C        1.536930084     -3.516193001     -1.177464787
O        2.685548289     -4.094898631     -0.630610934
H        3.304963048     -3.353205100     -0.403640569
O        4.018551484     -1.670952151     -0.166248770
C        2.931613731     -1.037901801     -0.145896678
C        2.659487701      0.128050544     -0.967488016
H        3.461175172      0.550271255     -1.592487243
C        1.329371350      0.515926501     -1.081494738
N        0.764629710      1.484364767     -1.878988151
H        1.281533744      2.108073766     -2.501756156
C       -0.636010875      1.523548239     -1.678592555
H       -1.243923520      2.238135205     -2.247337489
C       -1.014302128      0.587052115     -0.738502664
H       -2.034469520      0.385745484     -0.393592120
C        0.205987561     -0.097202651     -0.311223259
C        0.431243581     -1.096456481      0.620097009
H       -0.371197213     -1.521484591      1.242700709
C        1.814900666     -1.562642592      0.825588404
O        2.148419659     -2.346435639      1.737015351
