18

O          4.42490        2.57004        1.94711
C          3.36915        3.13504        1.54848
C          2.14161        3.10740        2.51371
O          2.32186        2.80738        3.70939
C          0.80844        3.47195        1.97719
C          0.72761        3.96612        0.70201
C          1.93495        4.09297       -0.15717
C          3.22619        3.78647        0.27075
N          1.51984        4.53740       -1.37161
C          0.05256        4.65331       -1.51804
C         -0.45951        4.53917       -0.05510
H          2.16670        4.72167       -2.14472
H          4.09161        3.83333       -0.40817
H         -0.06331        3.40147        2.64661
H         -1.36825        3.91274        0.03206
H         -0.69746        5.54652        0.34629
H         -0.33031        3.82866       -2.15628
H         -0.20981        5.61622       -1.99625
