18

N          2.42836       -0.20369        0.33044
H          3.36949       -0.57696        0.19240
C          1.72138       -0.25122        1.52910
H          2.16262       -0.72454        2.41506
C          0.47856        0.37691        1.35549
H         -0.29748        0.48799        2.12390
C          0.42327        0.82674       -0.02074
C          1.67008        0.45041       -0.63213
C          1.97519        0.74210       -1.99224
H          2.92647        0.44600       -2.46293
C         -0.54228        1.54981       -0.79070
H         -1.50343        1.87454       -0.36103
C         -0.23185        1.87486       -2.11830
O         -1.12006        2.61138       -2.88295
H         -0.59859        2.84731       -3.68300
C          1.01908        1.47474       -2.70969
O          1.20201        1.87473       -4.04339
H          2.04173        2.39168       -4.04565
